%nprocshared=8
%mem=10gb
%chk=terphenyl_zz_NICS.chk
#p nmr=giao b3lyp/6-31g(d)

File Created by py.Aroma 4

0 1
C      -1.339000      -0.396000      0.000000
C      -0.327000      -1.358000      0.000000
C      1.012000      -0.962000      0.000000
C      1.339000      0.396000      0.000000
C      0.327000      1.358000      -0.000000
C      -1.013000      0.962000      -0.000000
H      -0.581000      -2.414000      0.000000
H      1.800000      -1.710000      0.000000
H      0.581000      2.414000      -0.000000
H      -1.800000      1.710000      -0.000000
C      2.816000      0.832000      0.000000
C      3.486000      1.030000      -1.209000
C      3.485000      1.030000      1.210000
C      4.825000      1.426000      -1.209000
H      2.965000      0.876000      -2.150000
C      4.825000      1.426000      1.210000
H      2.964000      0.876000      2.151000
C      5.495000      1.624000      0.001000
H      5.347000      1.581000      -2.150000
H      5.345000      1.580000      2.151000
H      6.537000      1.932000      0.001000
C      -2.816000      -0.833000      -0.000000
C      -3.189000      -2.035000      0.605000
C      -3.783000      -0.026000      -0.605000
C      -4.528000      -2.431000      0.605000
H      -2.436000      -2.662000      1.075000
C      -5.122000      -0.423000      -0.605000
H      -3.493000      0.909000      -1.076000
C      -5.494000      -1.625000      -0.000000
H      -4.818000      -3.366000      1.076000
H      -5.874000      0.205000      -1.076000
H      -6.536000      -1.933000      0.000000
Bq      -4.013413      -1.708509      -0.865892
Bq      -4.297254      -0.749158      0.865892
Bq      -0.000167      0.000000      1.000000
Bq      -0.000167      0.000000      -1.000000
Bq      4.438837      0.269029      0.000637
Bq      3.871830      2.186971      0.000363
Bq      -4.155333      -1.228833      0.000000
Bq      -0.000167      0.000000      0.000000
Bq      4.155333      1.228000      0.000500


