%nprocshared=8
%mem=10gb
%chk=terphenyl_INICS.chk
#p nmr=giao b3lyp/6-31g(d) geom=connectivity

INICS 10.00 0.20 50 // py.Aroma 4

0 1
H      -1.479000      0.028000      -0.643000
C      -0.886000      0.208000      0.251000
C      0.585000      0.709000      2.562000
C      0.009000      -0.773000      0.711000
C      -1.043000      1.417000      0.933000
C      -0.307000      1.667000      2.088000
C      0.741000      -0.500000      1.879000
H      -1.744000      2.161000      0.562000
H      -0.430000      2.608000      2.619000
H      1.452000      -1.231000      2.260000
H      1.163000      0.902000      3.462000
C      0.174000      -2.047000      -0.008000
C      0.486000      -4.486000      -1.375000
C      0.486000      -2.070000      -1.375000
C      0.023000      -3.278000      0.657000
C      0.174000      -4.509000      -0.008000
C      0.641000      -3.278000      -2.055000
H      0.623000      -1.138000      -1.920000
H      -0.242000      -3.278000      1.714000
H      0.889000      -3.278000      -3.113000
H      0.623000      -5.418000      -1.920000
C      0.009000      -5.783000      0.711000
C      -0.307000      -8.223000      2.088000
C      -0.886000      -6.764000      0.251000
C      0.741000      -6.056000      1.879000
C      0.585000      -7.265000      2.562000
C      -1.043000      -7.973000      0.933000
H      -1.479000      -6.584000      -0.643000
H      1.452000      -5.325000      2.260000
H      1.163000      -7.457000      3.462000
H      -1.744000      -8.717000      0.562000
H      -0.430000      -9.163000      2.619000
Bq      -7.436456      -3.603028      6.921708
Bq      -7.290730      -3.521875      6.811354
Bq      -7.145004      -3.440721      6.701000
Bq      -6.999278      -3.359567      6.590646
Bq      -6.853552      -3.278413      6.480292
Bq      -6.707827      -3.197259      6.369937
Bq      -6.562101      -3.116105      6.259583
Bq      -6.416375      -3.034951      6.149229
Bq      -6.270649      -2.953797      6.038875
Bq      -6.124924      -2.872643      5.928521
Bq      -5.979198      -2.791489      5.818167
Bq      -5.833472      -2.710336      5.707812
Bq      -5.687746      -2.629182      5.597458
Bq      -5.542020      -2.548028      5.487104
Bq      -5.396295      -2.466874      5.376750
Bq      -5.250569      -2.385720      5.266396
Bq      -5.104843      -2.304566      5.156042
Bq      -4.959117      -2.223412      5.045687
Bq      -4.813392      -2.142258      4.935333
Bq      -4.667666      -2.061104      4.824979
Bq      -4.521940      -1.979950      4.714625
Bq      -4.376214      -1.898797      4.604271
Bq      -4.230488      -1.817643      4.493917
Bq      -4.084763      -1.736489      4.383562
Bq      -3.939037      -1.655335      4.273208
Bq      -3.793311      -1.574181      4.162854
Bq      -3.647585      -1.493027      4.052500
Bq      -3.501860      -1.411873      3.942146
Bq      -3.356134      -1.330719      3.831792
Bq      -3.210408      -1.249565      3.721437
Bq      -3.064682      -1.168411      3.611083
Bq      -2.918956      -1.087257      3.500729
Bq      -2.773231      -1.006104      3.390375
Bq      -2.627505      -0.924950      3.280021
Bq      -2.481779      -0.843796      3.169667
Bq      -2.336053      -0.762642      3.059312
Bq      -2.190328      -0.681488      2.948958
Bq      -2.044602      -0.600334      2.838604
Bq      -1.898876      -0.519180      2.728250
Bq      -1.753150      -0.438026      2.617896
Bq      -1.607424      -0.356872      2.507542
Bq      -1.461699      -0.275718      2.397187
Bq      -1.315973      -0.194565      2.286833
Bq      -1.170247      -0.113411      2.176479
Bq      -1.024521      -0.032257      2.066125
Bq      -0.878796      0.048897      1.955771
Bq      -0.733070      0.130051      1.845417
Bq      -0.587344      0.211205      1.735062
Bq      -0.441618      0.292359      1.624708
Bq      -0.295892      0.373513      1.514354
Bq      -0.150167      0.454667      1.404000
Bq      -0.004441      0.535821      1.293646
Bq      0.141285      0.616974      1.183292
Bq      0.287011      0.698128      1.072938
Bq      0.432736      0.779282      0.962583
Bq      0.578462      0.860436      0.852229
Bq      0.724188      0.941590      0.741875
Bq      0.869914      1.022744      0.631521
Bq      1.015640      1.103898      0.521167
Bq      1.161365      1.185052      0.410813
Bq      1.307091      1.266206      0.300458
Bq      1.452817      1.347360      0.190104
Bq      1.598543      1.428513      0.079750
Bq      1.744268      1.509667      -0.030604
Bq      1.889994      1.590821      -0.140958
Bq      2.035720      1.671975      -0.251312
Bq      2.181446      1.753129      -0.361667
Bq      2.327172      1.834283      -0.472021
Bq      2.472897      1.915437      -0.582375
Bq      2.618623      1.996591      -0.692729
Bq      2.764349      2.077745      -0.803083
Bq      2.910075      2.158899      -0.913437
Bq      3.055800      2.240053      -1.023792
Bq      3.201526      2.321206      -1.134146
Bq      3.347252      2.402360      -1.244500
Bq      3.492978      2.483514      -1.354854
Bq      3.638704      2.564668      -1.465208
Bq      3.784429      2.645822      -1.575562
Bq      3.930155      2.726976      -1.685917
Bq      4.075881      2.808130      -1.796271
Bq      4.221607      2.889284      -1.906625
Bq      4.367332      2.970438      -2.016979
Bq      4.513058      3.051592      -2.127333
Bq      4.658784      3.132745      -2.237687
Bq      4.804510      3.213899      -2.348042
Bq      4.950236      3.295053      -2.458396
Bq      5.095961      3.376207      -2.568750
Bq      5.241687      3.457361      -2.679104
Bq      5.387413      3.538515      -2.789458
Bq      5.533139      3.619669      -2.899812
Bq      5.678864      3.700823      -3.010167
Bq      5.824590      3.781977      -3.120521
Bq      5.970316      3.863131      -3.230875
Bq      6.116042      3.944284      -3.341229
Bq      6.261768      4.025438      -3.451583
Bq      6.407493      4.106592      -3.561937
Bq      6.553219      4.187746      -3.672292
Bq      6.698945      4.268900      -3.782646
Bq      6.844671      4.350054      -3.893000
Bq      6.990396      4.431208      -4.003354
Bq      7.136122      4.512362      -4.113708
Bq      -9.419130      -3.278000      -2.916939
Bq      -9.224135      -3.278000      -2.872480
Bq      -9.029139      -3.278000      -2.828021
Bq      -8.834143      -3.278000      -2.783562
Bq      -8.639147      -3.278000      -2.739104
Bq      -8.444151      -3.278000      -2.694645
Bq      -8.249155      -3.278000      -2.650186
Bq      -8.054159      -3.278000      -2.605727
Bq      -7.859163      -3.278000      -2.561268
Bq      -7.664167      -3.278000      -2.516810
Bq      -7.469171      -3.278000      -2.472351
Bq      -7.274175      -3.278000      -2.427892
Bq      -7.079179      -3.278000      -2.383433
Bq      -6.884183      -3.278000      -2.338975
Bq      -6.689187      -3.278000      -2.294516
Bq      -6.494191      -3.278000      -2.250057
Bq      -6.299195      -3.278000      -2.205598
Bq      -6.104199      -3.278000      -2.161139
Bq      -5.909203      -3.278000      -2.116681
Bq      -5.714208      -3.278000      -2.072222
Bq      -5.519212      -3.278000      -2.027763
Bq      -5.324216      -3.278000      -1.983304
Bq      -5.129220      -3.278000      -1.938846
Bq      -4.934224      -3.278000      -1.894387
Bq      -4.739228      -3.278000      -1.849928
Bq      -4.544232      -3.278000      -1.805469
Bq      -4.349236      -3.278000      -1.761011
Bq      -4.154240      -3.278000      -1.716552
Bq      -3.959244      -3.278000      -1.672093
Bq      -3.764248      -3.278000      -1.627634
Bq      -3.569252      -3.278000      -1.583175
Bq      -3.374256      -3.278000      -1.538717
Bq      -3.179260      -3.278000      -1.494258
Bq      -2.984264      -3.278000      -1.449799
Bq      -2.789268      -3.278000      -1.405340
Bq      -2.594272      -3.278000      -1.360882
Bq      -2.399277      -3.278000      -1.316423
Bq      -2.204281      -3.278000      -1.271964
Bq      -2.009285      -3.278000      -1.227505
Bq      -1.814289      -3.278000      -1.183046
Bq      -1.619293      -3.278000      -1.138588
Bq      -1.424297      -3.278000      -1.094129
Bq      -1.229301      -3.278000      -1.049670
Bq      -1.034305      -3.278000      -1.005211
Bq      -0.839309      -3.278000      -0.960753
Bq      -0.644313      -3.278000      -0.916294
Bq      -0.449317      -3.278000      -0.871835
Bq      -0.254321      -3.278000      -0.827376
Bq      -0.059325      -3.278000      -0.782918
Bq      0.135671      -3.278000      -0.738459
Bq      0.330667      -3.278000      -0.694000
Bq      0.525663      -3.278000      -0.649541
Bq      0.720659      -3.278000      -0.605082
Bq      0.915654      -3.278000      -0.560624
Bq      1.110650      -3.278000      -0.516165
Bq      1.305646      -3.278000      -0.471706
Bq      1.500642      -3.278000      -0.427247
Bq      1.695638      -3.278000      -0.382789
Bq      1.890634      -3.278000      -0.338330
Bq      2.085630      -3.278000      -0.293871
Bq      2.280626      -3.278000      -0.249412
Bq      2.475622      -3.278000      -0.204954
Bq      2.670618      -3.278000      -0.160495
Bq      2.865614      -3.278000      -0.116036
Bq      3.060610      -3.278000      -0.071577
Bq      3.255606      -3.278000      -0.027118
Bq      3.450602      -3.278000      0.017340
Bq      3.645598      -3.278000      0.061799
Bq      3.840594      -3.278000      0.106258
Bq      4.035590      -3.278000      0.150717
Bq      4.230586      -3.278000      0.195175
Bq      4.425581      -3.278000      0.239634
Bq      4.620577      -3.278000      0.284093
Bq      4.815573      -3.278000      0.328552
Bq      5.010569      -3.278000      0.373011
Bq      5.205565      -3.278000      0.417469
Bq      5.400561      -3.278000      0.461928
Bq      5.595557      -3.278000      0.506387
Bq      5.790553      -3.278000      0.550846
Bq      5.985549      -3.278000      0.595304
Bq      6.180545      -3.278000      0.639763
Bq      6.375541      -3.278000      0.684222
Bq      6.570537      -3.278000      0.728681
Bq      6.765533      -3.278000      0.773139
Bq      6.960529      -3.278000      0.817598
Bq      7.155525      -3.278000      0.862057
Bq      7.350521      -3.278000      0.906516
Bq      7.545517      -3.278000      0.950975
Bq      7.740512      -3.278000      0.995433
Bq      7.935508      -3.278000      1.039892
Bq      8.130504      -3.278000      1.084351
Bq      8.325500      -3.278000      1.128810
Bq      8.520496      -3.278000      1.173268
Bq      8.715492      -3.278000      1.217727
Bq      8.910488      -3.278000      1.262186
Bq      9.105484      -3.278000      1.306645
Bq      9.300480      -3.278000      1.351104
Bq      9.495476      -3.278000      1.395562
Bq      9.690472      -3.278000      1.440021
Bq      9.885468      -3.278000      1.484480
Bq      10.080464      -3.278000      1.528939
Bq      -7.436456      -2.952972      6.921708
Bq      -7.290730      -3.034125      6.811354
Bq      -7.145004      -3.115279      6.701000
Bq      -6.999278      -3.196433      6.590646
Bq      -6.853552      -3.277587      6.480292
Bq      -6.707827      -3.358741      6.369937
Bq      -6.562101      -3.439895      6.259583
Bq      -6.416375      -3.521049      6.149229
Bq      -6.270649      -3.602203      6.038875
Bq      -6.124924      -3.683357      5.928521
Bq      -5.979198      -3.764511      5.818167
Bq      -5.833472      -3.845664      5.707812
Bq      -5.687746      -3.926818      5.597458
Bq      -5.542020      -4.007972      5.487104
Bq      -5.396295      -4.089126      5.376750
Bq      -5.250569      -4.170280      5.266396
Bq      -5.104843      -4.251434      5.156042
Bq      -4.959117      -4.332588      5.045687
Bq      -4.813392      -4.413742      4.935333
Bq      -4.667666      -4.494896      4.824979
Bq      -4.521940      -4.576050      4.714625
Bq      -4.376214      -4.657203      4.604271
Bq      -4.230488      -4.738357      4.493917
Bq      -4.084763      -4.819511      4.383562
Bq      -3.939037      -4.900665      4.273208
Bq      -3.793311      -4.981819      4.162854
Bq      -3.647585      -5.062973      4.052500
Bq      -3.501860      -5.144127      3.942146
Bq      -3.356134      -5.225281      3.831792
Bq      -3.210408      -5.306435      3.721437
Bq      -3.064682      -5.387589      3.611083
Bq      -2.918956      -5.468743      3.500729
Bq      -2.773231      -5.549896      3.390375
Bq      -2.627505      -5.631050      3.280021
Bq      -2.481779      -5.712204      3.169667
Bq      -2.336053      -5.793358      3.059312
Bq      -2.190328      -5.874512      2.948958
Bq      -2.044602      -5.955666      2.838604
Bq      -1.898876      -6.036820      2.728250
Bq      -1.753150      -6.117974      2.617896
Bq      -1.607424      -6.199128      2.507542
Bq      -1.461699      -6.280282      2.397187
Bq      -1.315973      -6.361435      2.286833
Bq      -1.170247      -6.442589      2.176479
Bq      -1.024521      -6.523743      2.066125
Bq      -0.878796      -6.604897      1.955771
Bq      -0.733070      -6.686051      1.845417
Bq      -0.587344      -6.767205      1.735062
Bq      -0.441618      -6.848359      1.624708
Bq      -0.295892      -6.929513      1.514354
Bq      -0.150167      -7.010667      1.404000
Bq      -0.004441      -7.091821      1.293646
Bq      0.141285      -7.172974      1.183292
Bq      0.287011      -7.254128      1.072938
Bq      0.432736      -7.335282      0.962583
Bq      0.578462      -7.416436      0.852229
Bq      0.724188      -7.497590      0.741875
Bq      0.869914      -7.578744      0.631521
Bq      1.015640      -7.659898      0.521167
Bq      1.161365      -7.741052      0.410813
Bq      1.307091      -7.822206      0.300458
Bq      1.452817      -7.903360      0.190104
Bq      1.598543      -7.984513      0.079750
Bq      1.744268      -8.065667      -0.030604
Bq      1.889994      -8.146821      -0.140958
Bq      2.035720      -8.227975      -0.251312
Bq      2.181446      -8.309129      -0.361667
Bq      2.327172      -8.390283      -0.472021
Bq      2.472897      -8.471437      -0.582375
Bq      2.618623      -8.552591      -0.692729
Bq      2.764349      -8.633745      -0.803083
Bq      2.910075      -8.714899      -0.913437
Bq      3.055800      -8.796053      -1.023792
Bq      3.201526      -8.877206      -1.134146
Bq      3.347252      -8.958360      -1.244500
Bq      3.492978      -9.039514      -1.354854
Bq      3.638704      -9.120668      -1.465208
Bq      3.784429      -9.201822      -1.575562
Bq      3.930155      -9.282976      -1.685917
Bq      4.075881      -9.364130      -1.796271
Bq      4.221607      -9.445284      -1.906625
Bq      4.367332      -9.526438      -2.016979
Bq      4.513058      -9.607592      -2.127333
Bq      4.658784      -9.688745      -2.237687
Bq      4.804510      -9.769899      -2.348042
Bq      4.950236      -9.851053      -2.458396
Bq      5.095961      -9.932207      -2.568750
Bq      5.241687      -10.013361      -2.679104
Bq      5.387413      -10.094515      -2.789458
Bq      5.533139      -10.175669      -2.899812
Bq      5.678864      -10.256823      -3.010167
Bq      5.824590      -10.337977      -3.120521
Bq      5.970316      -10.419131      -3.230875
Bq      6.116042      -10.500284      -3.341229
Bq      6.261768      -10.581438      -3.451583
Bq      6.407493      -10.662592      -3.561937
Bq      6.553219      -10.743746      -3.672292
Bq      6.698945      -10.824900      -3.782646
Bq      6.844671      -10.906054      -3.893000
Bq      6.990396      -10.987208      -4.003354
Bq      7.136122      -11.068362      -4.113708

1
2
3
4
5
6
7
8
9
10
11
12
13
14
15
16
17
18
19
20
21
22
23
24
25
26
27
28
29
30
31
32
33
34
35
36
37
38
39
40
41
42
43
44
45
46
47
48
49
50
51
52
53
54
55
56
57
58
59
60
61
62
63
64
65
66
67
68
69
70
71
72
73
74
75
76
77
78
79
80
81
82
83
84
85
86
87
88
89
90
91
92
93
94
95
96
97
98
99
100
101
102
103
104
105
106
107
108
109
110
111
112
113
114
115
116
117
118
119
120
121
122
123
124
125
126
127
128
129
130
131
132
133
134
135
136
137
138
139
140
141
142
143
144
145
146
147
148
149
150
151
152
153
154
155
156
157
158
159
160
161
162
163
164
165
166
167
168
169
170
171
172
173
174
175
176
177
178
179
180
181
182
183
184
185
186
187
188
189
190
191
192
193
194
195
196
197
198
199
200
201
202
203
204
205
206
207
208
209
210
211
212
213
214
215
216
217
218
219
220
221
222
223
224
225
226
227
228
229
230
231
232
233
234
235
236
237
238
239
240
241
242
243
244
245
246
247
248
249
250
251
252
253
254
255
256
257
258
259
260
261
262
263
264
265
266
267
268
269
270
271
272
273
274
275
276
277
278
279
280
281
282
283
284
285
286
287
288
289
290
291
292
293
294
295
296
297
298
299
300
301
302
303
304
305
306
307
308
309
310
311
312
313
314
315
316
317
318
319
320
321
322
323
324
325
326
327
328
329
330
331
332
333
334
335

